EPRI_Ckt7_DER_Project/Fault_Test_Exports/ckt7_EXP_VOLTAGES_WITH_FAULT.CSV
Bus, BasekV, Node1, Magnitude1, Angle1, pu1, Node2, Magnitude2, Angle2, pu2, Node3, Magnitude3, Angle3, pu3
"SOURCEBUS", 115, 1,      53413,   -2.3,   0.80447, 2,    64838.6, -127.8,   0.97655, 3,    55096.4,  104.3,   0.82982
"CKT7", 12.47, 1,    5390.29,  -40.1,    0.7487, 2,    6578.86, -152.4,   0.91379, 3,    6739.25,   75.7,   0.93606
"318405", 12.47, 1,    5390.29,  -40.1,    0.7487, 2,    6578.86, -152.4,   0.91379, 3,    6739.25,   75.7,   0.93606
"318412", 12.47, 1,    5390.29,  -40.1,    0.7487, 2,    6578.86, -152.4,   0.91379, 3,    6739.25,   75.7,   0.93606
"318414", 12.47, 1,    5390.29,  -40.1,    0.7487, 2,    6578.86, -152.4,   0.91379, 3,    6739.25,   75.7,   0.93606
"157345", 12.47, 1,    4718.55,  -37.5,   0.65539, 2,    6476.64, -155.0,   0.89959, 3,    7025.35,   76.6,    0.9758
"157346", 12.47, 1,    4718.56,  -37.5,    0.6554, 2,    6476.64, -155.0,   0.89959, 3,    7025.36,   76.6,    0.9758
"165442", 12.47, 1,    4693.55,  -37.6,   0.65192, 2,    6481.95, -155.0,   0.90033, 3,    7026.97,   76.7,   0.97603
"298160", 12.47, 1,    3711.63,  -39.3,   0.51554, 2,    6694.48, -157.2,   0.92985, 3,     7096.7,   79.3,   0.98571
"165448", 12.47, 1,    3365.65,  -38.0,   0.46748, 2,    6680.44, -157.8,    0.9279, 3,    7160.28,   79.5,   0.99454
"275354", 12.47, 1,    1918.71,  -42.6,    0.2665, 2,    7008.93, -161.1,   0.97352, 3,    7327.21,   83.2,    1.0177
"165449", 12.47, 1,    1808.17,  -43.3,   0.25115, 2,    7035.19, -161.3,   0.97717, 3,     7341.3,   83.5,    1.0197
"165450", 12.47, 1,    1808.17,  -43.3,   0.25115, 2,    7035.19, -161.3,   0.97717, 3,     7341.3,   83.5,    1.0197
"165453", 12.47, 1,    1430.89,  -46.4,   0.19875, 2,    7125.23, -162.1,   0.98968, 3,    7390.25,   84.4,    1.0265
"165454", 12.47, 1,    1430.63,  -46.4,   0.19871, 2,    7124.71, -162.1,    0.9896, 3,    7389.74,   84.4,    1.0264
"165451", 12.47, 1,    1431.29,  -46.4,    0.1988, 2,    7126.23, -162.1,   0.98982, 3,    7390.98,   84.4,    1.0266
"238402", 12.47, 1,    1430.46,  -46.4,   0.19869, 2,    7124.39, -162.1,   0.98956, 3,    7389.41,   84.4,    1.0264
"165455", 12.47, 1,    1429.21,  -46.4,   0.19851, 2,     7122.3, -162.1,   0.98927, 3,    7387.24,   84.4,    1.0261
"165456", 12.47, 1,    1429.22,  -46.4,   0.19851, 2,    7122.31, -162.1,   0.98927, 3,    7387.26,   84.4,    1.0261
"165452", 12.47, 1,    1429.71,  -46.4,   0.19858, 2,    7123.12, -162.1,   0.98938, 3,     7388.1,   84.4,    1.0262
"283563", 12.47, 1,    1429.31,  -46.4,   0.19853, 2,    7122.47, -162.1,   0.98929, 3,    7387.42,   84.4,    1.0261
"165457", 12.47, 1,    1429.16,  -46.4,   0.19851, 2,    7122.23, -162.1,   0.98926, 3,    7387.16,   84.4,    1.0261
"165458", 12.47, 1,    1430.86,  -46.4,   0.19874, 2,    7125.52, -162.1,   0.98972, 3,    7390.24,   84.4,    1.0265
"165459", 12.47, 1,    1430.88,  -46.4,   0.19875, 2,    7125.55, -162.1,   0.98972, 3,    7390.28,   84.4,    1.0265
"165460", 12.47, 1,    1430.76,  -46.4,   0.19873, 2,    7125.36, -162.1,   0.98969, 3,    7390.05,   84.4,    1.0265
"165461", 12.47, 1,    1429.32,  -46.4,   0.19853, 2,    7123.07, -162.2,   0.98938, 3,    7387.41,   84.4,    1.0261
"165463", 12.47, 1,    1428.87,  -46.4,   0.19847, 2,    7122.36, -162.2,   0.98928, 3,    7386.59,   84.4,     1.026
"165462", 12.47, 1,    1428.53,  -46.4,   0.19842, 2,    7121.82, -162.2,    0.9892, 3,    7385.96,   84.4,    1.0259
"165465", 12.47, 1,    1428.83,  -46.4,   0.19846, 2,    7122.31, -162.2,   0.98927, 3,    7386.52,   84.4,     1.026
"165466", 12.47, 1,    1429.31,  -46.4,   0.19853, 2,    7123.07, -162.2,   0.98938, 3,     7387.4,   84.4,    1.0261
"165467", 12.47, 1,    981.374,  -33.6,   0.13631, 2,    7215.47, -162.7,    1.0022, 3,    7409.01,   85.3,    1.0291
"165468", 12.47, 1,    853.677,  -33.9,   0.11857, 2,    7246.44, -162.9,    1.0065, 3,    7426.76,   85.6,    1.0316
"165475", 12.47, 1,    788.843,  -38.3,   0.10957, 2,     7292.1, -162.5,    1.0129, 3,     7373.5,   85.8,    1.0242
"165476", 12.47, 1,    791.447,  -38.3,   0.10993, 2,    7291.48, -162.5,    1.0128, 3,    7371.31,   85.7,    1.0239
"165477", 12.47, 1,    791.288,  -38.3,   0.10991, 2,    7291.21, -162.5,    1.0127, 3,       7371,   85.7,    1.0238
"273626", 12.47, 1,     770.76,  -37.1,   0.10706, 2,    7287.29, -162.7,    1.0122, 3,    7394.05,   85.8,     1.027
"165469", 12.47, 1,    727.212,  -34.2,   0.10101, 2,    7277.25, -163.2,    1.0108, 3,    7444.55,   85.9,     1.034
"165480", 12.47, 1,    520.598,  -34.4,   0.07231, 2,    7329.29, -163.7,     1.018, 3,    7484.03,   86.4,    1.0395
"165478", 12.47, 1,    377.338,  -34.7,  0.052411, 2,    7365.71, -164.0,    1.0231, 3,    7511.78,   86.8,    1.0434
"165479", 12.47, 1,    225.207,  -35.5,  0.031281, 2,     7404.7, -164.4,    1.0285, 3,    7541.63,   87.1,    1.0475
"165484", 12.47, 1,    377.211,  -34.7,  0.052394, 2,    7365.48, -164.0,     1.023, 3,    7511.54,   86.8,    1.0433
"165483", 12.47, 1,    377.231,  -34.7,  0.052396, 2,    7365.51, -164.0,    1.0231, 3,    7511.58,   86.8,    1.0433
"261839", 12.47, 1,    377.241,  -34.7,  0.052398, 2,    7365.53, -164.0,    1.0231, 3,    7511.59,   86.8,    1.0433
"261838", 12.47, 1,    377.247,  -34.7,  0.052399, 2,    7365.54, -164.0,    1.0231, 3,    7511.61,   86.8,    1.0433
"165486", 12.47, 1,    225.208,  -35.5,  0.031281, 2,    7404.68, -164.4,    1.0285, 3,    7541.61,   87.1,    1.0475
"165485", 12.47, 1,    225.206,  -35.5,  0.031281, 2,    7404.68, -164.4,    1.0285, 3,    7541.61,   87.1,    1.0475
"165487", 12.47, 1,    7.68717, -108.6, 0.0010677, 2,    7462.39, -164.9,    1.0365, 3,    7585.99,   87.7,    1.0537
"165488", 12.47, 1,     7.6864, -108.6, 0.0010676, 0, 0, 0, 0, 0, 0, 0, 0
"165489", 12.47, 1,    7.68644, -108.6, 0.0010676, 0, 0, 0, 0, 0, 0, 0, 0
"165491", 12.47, 1,    7.68596, -108.6, 0.0010676, 0, 0, 0, 0, 0, 0, 0, 0
"165490", 12.47, 1,    7.68551, -108.6, 0.0010675, 0, 0, 0, 0, 0, 0, 0, 0
"165494", 12.47, 1,    7.68506, -108.6, 0.0010674, 0, 0, 0, 0, 0, 0, 0, 0
"165492", 12.47, 1,    7.68495, -108.6, 0.0010674, 0, 0, 0, 0, 0, 0, 0, 0
"165493", 12.47, 1,    7.68471, -108.6, 0.0010674, 0, 0, 0, 0, 0, 0, 0, 0
"283952", 12.47, 1,    25.9118,  -67.6, 0.0035991, 2,    7454.56, -164.8,    1.0354, 3,    7569.03,   87.6,    1.0513
"165500", 12.47, 1,    23.0605,  -67.2,  0.003203, 2,    7453.82, -164.8,    1.0353, 3,    7569.72,   87.5,    1.0514
"165501", 12.47, 1,     23.059,  -67.2, 0.0032028, 2,    7453.81, -164.8,    1.0353, 3,    7569.71,   87.5,    1.0514
"165495", 12.47, 1,    23.0748,  -67.2,  0.003205, 2,    7453.85, -164.8,    1.0353, 3,    7569.75,   87.5,    1.0514
"165503", 12.47, 1,    23.0215,  -67.3, 0.0031976, 2,    7453.73, -164.8,    1.0353, 3,    7569.61,   87.5,    1.0514
"165504", 12.47, 1,   0.758458,   27.6, 0.00010535, 2,    7408.44, -165.3,     1.029, 3,    7529.43,   87.3,    1.0458
"181883", 12.47, 1,    13.6709,  115.6, 0.0018989, 2,    7404.74, -165.6,    1.0285, 3,    7533.39,   87.2,    1.0464
"158676", 12.47, 1,    13.6709,  115.6, 0.0018989, 2,    7404.74, -165.6,    1.0285, 3,    7533.39,   87.2,    1.0464
"181889", 12.47, 1,    13.8859,  113.3, 0.0019287, 2,    7401.25, -165.6,     1.028, 3,    7531.29,   87.2,    1.0461
"181890", 12.47, 1,    13.8891,  113.4, 0.0019292, 2,    7401.24, -165.6,     1.028, 3,    7531.27,   87.2,    1.0461
"181891", 12.47, 1,    13.8653,  109.5, 0.0019258, 2,    7397.57, -165.6,    1.0275, 3,    7529.44,   87.2,    1.0458
"181892", 12.47, 1,    13.8585,  109.3, 0.0019249, 2,    7397.47, -165.6,    1.0275, 3,     7529.4,   87.2,    1.0458
"181884", 12.47, 1,    13.8315,  113.7, 0.0019212, 2,    7401.94, -165.6,    1.0281, 3,    7531.71,   87.2,    1.0461
"181886", 12.47, 1,    13.8716,  113.3, 0.0019267, 2,    7401.28, -165.6,     1.028, 3,    7531.32,   87.2,    1.0461
"181888", 12.47, 1,    13.9011,  111.8, 0.0019308, 2,    7399.45, -165.6,    1.0278, 3,    7530.32,   87.2,    1.0459
"181885", 12.47, 1,    13.8953,  110.2,   0.00193, 2,    7398.13, -165.6,    1.0276, 3,     7529.7,   87.2,    1.0459
"181887", 12.47, 1,    13.8927,  110.1, 0.0019297, 2,    7397.97, -165.6,    1.0276, 3,    7529.62,   87.2,    1.0458
"181893", 12.47, 1,     13.898,  113.4, 0.0019304, 2,    7401.22, -165.6,     1.028, 3,    7531.25,   87.2,    1.0461
"181894", 12.47, 1,    14.0048,  110.4, 0.0019452, 2,    7397.72, -165.6,    1.0275, 3,    7529.32,   87.2,    1.0458
"181895", 12.47, 1,    14.0056,  110.4, 0.0019453, 2,    7397.71, -165.6,    1.0275, 3,    7529.32,   87.2,    1.0458
"181896", 12.47, 1,    14.0057,  110.4, 0.0019454, 2,    7397.71, -165.6,    1.0275, 3,    7529.32,   87.2,    1.0458
"181897", 12.47, 1,     14.006,  110.4, 0.0019454, 2,    7397.71, -165.6,    1.0275, 3,    7529.32,   87.2,    1.0458
"181898", 12.47, 1,    13.8566,  109.3, 0.0019246, 0, 0, 0, 0, 0, 0, 0, 0
"181899", 12.47, 1,    13.8552,  109.3, 0.0019244, 0, 0, 0, 0, 0, 0, 0, 0
"181900", 12.47, 1,    13.8548,  109.3, 0.0019244, 0, 0, 0, 0, 0, 0, 0, 0
"181901", 12.47, 1,    13.8544,  109.3, 0.0019243, 0, 0, 0, 0, 0, 0, 0, 0
"181902", 12.47, 1,    13.8541,  109.3, 0.0019243, 0, 0, 0, 0, 0, 0, 0, 0
"181908", 12.47, 3,    7529.11,   87.2,    1.0458, 0, 0, 0, 0, 0, 0, 0, 0
"181903", 12.47, 3,    7529.09,   87.2,    1.0458, 0, 0, 0, 0, 0, 0, 0, 0
"181904", 12.47, 3,    7529.04,   87.2,    1.0458, 0, 0, 0, 0, 0, 0, 0, 0
"181905", 12.47, 3,     7528.8,   87.2,    1.0457, 0, 0, 0, 0, 0, 0, 0, 0
"181909", 12.47, 3,    7528.72,   87.2,    1.0457, 0, 0, 0, 0, 0, 0, 0, 0
"181907", 12.47, 3,     7528.7,   87.2,    1.0457, 0, 0, 0, 0, 0, 0, 0, 0
"181906", 12.47, 3,    7528.69,   87.2,    1.0457, 0, 0, 0, 0, 0, 0, 0, 0
"181910", 12.47, 2,    7394.92, -165.6,    1.0271, 0, 0, 0, 0, 0, 0, 0, 0
"181911", 12.47, 2,    7394.46, -165.6,    1.0271, 0, 0, 0, 0, 0, 0, 0, 0
"181916", 12.47, 2,    7393.95, -165.6,     1.027, 0, 0, 0, 0, 0, 0, 0, 0
"181915", 12.47, 2,    7393.86, -165.6,     1.027, 0, 0, 0, 0, 0, 0, 0, 0
"181912", 12.47, 2,     7393.8, -165.6,     1.027, 0, 0, 0, 0, 0, 0, 0, 0
"181913", 12.47, 2,    7393.66, -165.6,     1.027, 0, 0, 0, 0, 0, 0, 0, 0
"181914", 12.47, 2,    7393.66, -165.6,     1.027, 0, 0, 0, 0, 0, 0, 0, 0
"181917", 12.47, 1,    14.1588,  124.7, 0.0019666, 2,    7410.51, -165.6,    1.0293, 3,    7535.56,   87.2,    1.0467
"181920", 12.47, 1,    14.1588,  124.7, 0.0019666, 2,    7410.51, -165.6,    1.0293, 3,    7535.56,   87.2,    1.0467
"181918", 12.47, 1,    14.1844,  125.0, 0.0019702, 2,    7410.73, -165.6,    1.0293, 3,    7535.64,   87.2,    1.0467
"181919", 12.47, 1,    13.4408,  125.0, 0.0018669, 2,    7410.81, -165.5,    1.0293, 3,    7535.36,   87.2,    1.0466
"152566", 12.47, 1,    13.4408,  125.0, 0.0018669, 2,    7410.81, -165.5,    1.0293, 3,    7535.36,   87.2,    1.0466
"181925", 12.47, 1,    15.5396,  126.1, 0.0021584, 2,    7411.38, -165.6,    1.0294, 3,    7536.42,   87.2,    1.0468
"181926", 12.47, 1,     15.682,  126.1, 0.0021782, 2,     7411.5, -165.6,    1.0294, 3,    7536.63,   87.2,    1.0468
"181927", 12.47, 1,    15.6852,  126.1, 0.0021786, 2,     7411.5, -165.6,    1.0294, 3,    7536.62,   87.2,    1.0468
"181928", 12.47, 1,    15.5967,  126.5, 0.0021663, 2,    7411.28, -165.6,    1.0294, 3,    7536.18,   87.2,    1.0468
"181924", 12.47, 1,    13.4408,  125.0, 0.0018669, 2,    7410.81, -165.5,    1.0293, 3,    7535.36,   87.2,    1.0466
"181933", 12.47, 3,    7534.04,   87.3,    1.0465, 0, 0, 0, 0, 0, 0, 0, 0
"181934", 12.47, 3,    7533.98,   87.3,    1.0465, 0, 0, 0, 0, 0, 0, 0, 0
"255317", 12.47, 1,    12.3761,  124.6,  0.001719, 2,    7411.31, -165.5,    1.0294, 3,     7535.4,   87.2,    1.0466
"181929", 12.47, 1,    10.5269,  124.4, 0.0014622, 2,    7411.52, -165.5,    1.0294, 3,    7534.69,   87.3,    1.0465
"181936", 12.47, 1,    9.45965,  123.7, 0.0013139, 2,    7411.72, -165.5,    1.0295, 3,    7534.52,   87.3,    1.0465
"181932", 12.47, 1,    8.65139,  122.9, 0.0012017, 2,    7411.87, -165.4,    1.0295, 3,     7534.4,   87.3,    1.0465
"181939", 12.47, 1,    15.8484,  126.2, 0.0022013, 2,    7411.17, -165.6,    1.0294, 3,     7536.3,   87.2,    1.0468
"181940", 12.47, 1,    15.8483,  126.2, 0.0022013, 2,    7411.17, -165.6,    1.0294, 3,     7536.3,   87.2,    1.0468
"181937", 12.47, 1,    15.7052,  126.1, 0.0021814, 2,    7411.46, -165.6,    1.0294, 3,    7536.58,   87.2,    1.0468
"181938", 12.47, 1,    15.8477,  126.2, 0.0022012, 2,    7411.17, -165.6,    1.0294, 3,     7536.3,   87.2,    1.0468
"181941", 12.47, 1,    15.8485,  126.2, 0.0022013, 2,    7411.17, -165.6,    1.0294, 3,     7536.3,   87.2,    1.0468
"181943", 12.47, 3,    7533.17,   87.3,    1.0463, 0, 0, 0, 0, 0, 0, 0, 0
"181944", 12.47, 3,    7533.13,   87.3,    1.0463, 0, 0, 0, 0, 0, 0, 0, 0
"181945", 12.47, 1,    7.97085,  122.2, 0.0011071, 2,    7412.16, -165.4,    1.0295, 3,    7534.65,   87.3,    1.0465
"181942", 12.47, 1,    6.44255,  121.3, 0.00089485, 2,    7411.36, -165.4,    1.0294, 3,    7533.36,   87.3,    1.0464
"236964", 12.47, 1,    6.44227,  121.3, 0.00089481, 0, 0, 0, 0, 0, 0, 0, 0
"181946", 12.47, 1,    6.44164,  121.3, 0.00089473, 0, 0, 0, 0, 0, 0, 0, 0
"181953", 12.47, 1,    6.44151,  121.3, 0.00089471, 0, 0, 0, 0, 0, 0, 0, 0
"181947", 12.47, 1,    6.44153,  121.3, 0.00089471, 0, 0, 0, 0, 0, 0, 0, 0
"181950", 12.47, 1,    6.44149,  121.3, 0.00089471, 0, 0, 0, 0, 0, 0, 0, 0
"181948", 12.47, 1,    6.44139,  121.3, 0.00089469, 0, 0, 0, 0, 0, 0, 0, 0
"181951", 12.47, 1,    6.44136,  121.3, 0.00089469, 0, 0, 0, 0, 0, 0, 0, 0
"181952", 12.47, 1,    6.44136,  121.3, 0.00089469, 0, 0, 0, 0, 0, 0, 0, 0
"181954", 12.47, 1,    8.64988,  122.9, 0.0012014, 0, 0, 0, 0, 0, 0, 0, 0
"181949", 12.47, 1,     8.6499,  122.9, 0.0012014, 0, 0, 0, 0, 0, 0, 0, 0
"181955", 12.47, 1,    8.64985,  122.9, 0.0012014, 0, 0, 0, 0, 0, 0, 0, 0
"181956", 12.47, 1,    8.65012,  122.9, 0.0012015, 0, 0, 0, 0, 0, 0, 0, 0
"236966", 12.47, 1,    8.65125,  122.9, 0.0012016, 0, 0, 0, 0, 0, 0, 0, 0
"181957", 12.47, 3,    7531.84,   87.3,    1.0462, 0, 0, 0, 0, 0, 0, 0, 0
"181958", 12.47, 3,    7533.25,   87.3,    1.0463, 0, 0, 0, 0, 0, 0, 0, 0
"181967", 12.47, 3,    7532.04,   87.3,    1.0462, 0, 0, 0, 0, 0, 0, 0, 0
"181966", 12.47, 3,    7531.65,   87.3,    1.0461, 0, 0, 0, 0, 0, 0, 0, 0
"181965", 12.47, 3,    7531.29,   87.3,    1.0461, 0, 0, 0, 0, 0, 0, 0, 0
"181959", 12.47, 3,    7531.16,   87.3,    1.0461, 0, 0, 0, 0, 0, 0, 0, 0
"181963", 12.47, 3,    7530.95,   87.3,     1.046, 0, 0, 0, 0, 0, 0, 0, 0
"181964", 12.47, 3,    7530.81,   87.3,     1.046, 0, 0, 0, 0, 0, 0, 0, 0
"181960", 12.47, 3,    7530.75,   87.3,     1.046, 0, 0, 0, 0, 0, 0, 0, 0
"181961", 12.47, 3,    7530.72,   87.3,     1.046, 0, 0, 0, 0, 0, 0, 0, 0
"181962", 12.47, 3,    7530.63,   87.3,     1.046, 0, 0, 0, 0, 0, 0, 0, 0
"181969", 12.47, 1,    5.06325,  120.6, 0.00070327, 2,    7410.56, -165.4,    1.0293, 3,    7532.22,   87.3,    1.0462
"181970", 12.47, 1,    5.04886,  120.4, 0.00070127, 2,    7410.59, -165.4,    1.0293, 3,    7532.27,   87.3,    1.0462
"181971", 12.47, 1,    5.36603,  121.3, 0.00074533, 2,    7409.88, -165.4,    1.0292, 3,    7531.66,   87.3,    1.0461
"181972", 12.47, 1,      5.367,  121.3, 0.00074546, 2,    7409.88, -165.4,    1.0292, 3,    7531.66,   87.3,    1.0461
"181973", 12.47, 1,    6.05376,  123.0, 0.00084085, 2,    7408.36, -165.4,     1.029, 3,    7530.34,   87.3,    1.0459
"181974", 12.47, 1,     6.0674,  123.2, 0.00084275, 2,    7408.34, -165.4,     1.029, 3,    7530.29,   87.3,    1.0459
"181968", 12.47, 1,    5.03622,  120.2, 0.00069952, 2,    7410.61, -165.4,    1.0293, 3,    7532.32,   87.3,    1.0462
"181979", 12.47, 1,    5.36223,  121.3, 0.0007448, 2,    7409.89, -165.4,    1.0292, 3,    7531.66,   87.3,    1.0461
"181976", 12.47, 1,    5.60892,  121.9, 0.00077906, 2,    7409.33, -165.4,    1.0291, 3,    7531.19,   87.3,    1.0461
"181977", 12.47, 1,    5.95939,  122.7, 0.00082774, 2,    7408.55, -165.4,     1.029, 3,    7530.53,   87.3,     1.046
"181978", 12.47, 1,    5.96264,  122.7, 0.0008282, 2,    7408.52, -165.4,     1.029, 3,    7530.53,   87.3,     1.046
"181975", 12.47, 2,    7408.45, -165.4,     1.029, 0, 0, 0, 0, 0, 0, 0, 0
"181982", 12.47, 2,    7408.45, -165.4,     1.029, 0, 0, 0, 0, 0, 0, 0, 0
"181980", 12.47, 1,    6.21386,  123.9, 0.00086309, 2,    7408.05, -165.4,     1.029, 3,    7529.95,   87.3,    1.0459
"181981", 12.47, 1,    5.37461,  121.3, 0.00074652, 2,    7409.86, -165.4,    1.0292, 3,    7531.65,   87.3,    1.0461
"261881", 12.47, 1,    1.11547,   16.0, 0.00015494, 2,    7407.82, -165.3,    1.0289, 3,    7529.08,   87.3,    1.0458
"181987", 12.47, 1,    20.9738,  129.7, 0.0029132, 2,    7400.47, -165.6,    1.0279, 3,    7525.51,   87.3,    1.0453
"181988", 12.47, 1,    21.0239,  129.9, 0.0029202, 2,    7400.39, -165.6,    1.0279, 3,    7525.36,   87.3,    1.0453
"181985", 12.47, 1,    16.7214,  127.3, 0.0023226, 2,    7408.95, -165.6,    1.0291, 3,    7533.89,   87.2,    1.0464
"181986", 12.47, 1,    17.0817,  127.6, 0.0023726, 2,     7408.2, -165.6,     1.029, 3,    7533.16,   87.2,    1.0463
"181989", 12.47, 1,    21.1453,  130.0,  0.002937, 2,    7400.16, -165.6,    1.0279, 3,    7525.09,   87.3,    1.0452
"181992", 12.47, 1,     21.286,  130.1, 0.0029566, 2,    7399.89, -165.6,    1.0278, 3,    7524.78,   87.3,    1.0452
"181990", 12.47, 1,    21.3866,  130.2, 0.0029705, 2,    7399.71, -165.6,    1.0278, 3,    7524.56,   87.3,    1.0451
"181991", 12.47, 1,    22.6506,  131.4, 0.0031461, 2,    7397.34, -165.6,    1.0275, 3,    7521.78,   87.3,    1.0448
"181993", 12.47, 1,    18.0459,  125.0, 0.0025065, 2,    7413.72, -165.6,    1.0297, 3,    7540.41,   87.2,    1.0473
"181994", 12.47, 1,    18.0879,  124.4, 0.0025124, 2,    7411.44, -165.6,    1.0294, 3,    7538.58,   87.2,    1.0471
"181995", 12.47, 1,    18.1024,  124.1, 0.0025144, 2,    7410.69, -165.6,    1.0293, 3,    7537.98,   87.2,     1.047
"181996", 12.47, 1,    18.1158,  123.9, 0.0025162, 2,       7410, -165.6,    1.0292, 3,    7537.42,   87.2,    1.0469
"181997", 12.47, 1,    18.1291,  123.8, 0.0025181, 2,    7409.34, -165.6,    1.0291, 3,    7536.89,   87.2,    1.0469
"181998", 12.47, 1,    18.1158,  123.9, 0.0025162, 2,       7410, -165.6,    1.0292, 3,    7537.42,   87.2,    1.0469
"181999", 12.47, 1,    18.1158,  123.9, 0.0025162, 2,       7410, -165.6,    1.0292, 3,    7537.42,   87.2,    1.0469
"182000", 12.47, 1,    18.1289,  123.8, 0.0025181, 2,    7409.34, -165.6,    1.0291, 3,    7536.89,   87.2,    1.0469
"182001", 12.47, 1,     18.129,  123.8, 0.0025181, 2,    7409.34, -165.6,    1.0291, 3,    7536.89,   87.2,    1.0469
"182002", 12.47, 1,    18.1288,  123.8,  0.002518, 2,    7409.34, -165.6,    1.0291, 3,    7536.89,   87.2,    1.0469
"182003", 12.47, 1,    18.1158,  123.9, 0.0025162, 2,       7410, -165.6,    1.0292, 3,    7537.42,   87.2,    1.0469
"182004", 12.47, 1,    18.1383,  123.6, 0.0025194, 2,     7408.9, -165.6,    1.0291, 3,    7536.54,   87.2,    1.0468
"182005", 12.47, 1,    18.1439,  123.6, 0.0025201, 2,    7408.87, -165.6,    1.0291, 3,    7536.51,   87.2,    1.0468
"182006", 12.47, 1,    18.1444,  123.6, 0.0025202, 2,    7408.85, -165.6,    1.0291, 3,    7536.49,   87.2,    1.0468
"210023", 12.47, 1,    18.1496,  123.6, 0.0025209, 2,    7408.82, -165.6,    1.0291, 3,    7536.47,   87.2,    1.0468
"182012", 12.47, 1,    18.4707,  123.1, 0.0025655, 2,     7406.7, -165.6,    1.0288, 3,    7534.89,   87.2,    1.0466
"182013", 12.47, 1,    18.4707,  123.1, 0.0025655, 2,     7406.7, -165.6,    1.0288, 3,    7534.89,   87.2,    1.0466
"182015", 12.47, 1,    18.6379,  122.8, 0.0025887, 2,    7405.48, -165.6,    1.0286, 3,    7533.98,   87.2,    1.0465
"182016", 12.47, 1,    18.6348,  122.8, 0.0025883, 2,    7405.61, -165.6,    1.0286, 3,    7534.08,   87.2,    1.0465
"182011", 12.47, 1,    18.4707,  123.1, 0.0025655, 2,     7406.7, -165.6,    1.0288, 3,    7534.89,   87.2,    1.0466
"182014", 12.47, 1,    18.5527,  123.0, 0.0025769, 2,    7406.16, -165.6,    1.0287, 3,    7534.49,   87.2,    1.0465
"182018", 12.47, 1,    18.6687,  122.7,  0.002593, 2,    7405.27, -165.6,    1.0286, 3,    7533.83,   87.2,    1.0464
"182019", 12.47, 1,    18.7485,  122.6, 0.0026041, 2,    7404.75, -165.6,    1.0285, 3,    7533.43,   87.2,    1.0464
"182020", 12.47, 1,    19.0474,  122.2, 0.0026456, 2,    7402.97, -165.6,    1.0283, 3,     7532.1,   87.2,    1.0462
"182017", 12.47, 1,    19.2982,  122.0, 0.0026805, 2,    7401.61, -165.6,    1.0281, 3,    7531.09,   87.2,     1.046
"182022", 12.47, 1,     19.324,  121.7, 0.0026841, 2,    7401.26, -165.6,     1.028, 3,    7531.12,   87.2,    1.0461
"182021", 12.47, 1,    19.3372,  121.7, 0.0026859, 2,    7401.14, -165.6,     1.028, 3,    7531.15,   87.2,    1.0461
"182024", 12.47, 1,    19.4947,  122.1, 0.0027078, 2,    7400.87, -165.6,     1.028, 3,    7530.18,   87.2,    1.0459
"182025", 12.47, 1,    19.4987,  122.1, 0.0027083, 2,    7400.86, -165.6,     1.028, 3,    7530.17,   87.2,    1.0459
"182023", 12.47, 1,    19.4762,  122.1, 0.0027052, 2,    7400.91, -165.6,     1.028, 3,    7530.22,   87.2,    1.0459
"215930", 12.47, 1,    19.6357,  122.2, 0.0027274, 2,    7400.14, -165.7,    1.0279, 3,    7529.24,   87.2,    1.0458
"182027", 12.47, 1,    19.5425,  122.2, 0.0027144, 2,    7400.78, -165.6,    1.0279, 3,    7530.06,   87.2,    1.0459
"247589", 12.47, 1,    18.4707,  123.1, 0.0025655, 2,     7406.7, -165.6,    1.0288, 3,    7534.89,   87.2,    1.0466
"182030", 12.47, 1,    18.4707,  123.1, 0.0025655, 2,     7406.7, -165.6,    1.0288, 3,    7534.89,   87.2,    1.0466
...
"X_0862099", 0.208, 1,    94.7224,  -78.4,   0.78877, 2,    91.5973,  178.5,   0.76275, 3,    115.883,   51.3,   0.96498
"S1X_0862099", 0.208, 1,    94.2974,  -78.3,   0.78523, 2,    91.2226,  178.6,   0.75963, 3,    115.422,   51.3,   0.96114
"S2X_0862099", 0.208, 1,    94.2974,  -78.3,   0.78523, 2,    91.2226,  178.6,   0.75963, 3,    115.422,   51.3,   0.96114
"S3X_0862099", 0.208, 1,    94.2974,  -78.3,   0.78523, 2,    91.2226,  178.6,   0.75963, 3,    115.422,   51.3,   0.96114
"X_1000663", 0.4157, 1,    155.621,  -37.7,   0.64841, 2,    214.868, -155.1,   0.89526, 3,      232.9,   76.6,    0.9704
"S1X_1000663", 0.4157, 1,    155.004,  -37.6,   0.64584, 2,    213.977, -155.1,   0.89155, 3,    231.908,   76.6,   0.96626
"X_1000252", 0.4157, 2,    221.453, -157.9,   0.92271, 0, 0, 0, 0, 0, 0, 0, 0
"S1X_1000252", 0.4157, 2,    220.097, -157.9,   0.91705, 0, 0, 0, 0, 0, 0, 0, 0
"X_1001746", 0.208, 1,    80.0677,  -88.9,   0.66674, 2,    74.9028, -172.3,   0.62373, 3,    115.735,   51.1,   0.96374
"S1X_1001746", 0.208, 1,    79.3458,  -88.8,   0.66073, 2,    74.2923, -172.2,   0.61864, 3,    114.805,   51.1,     0.956
"S2X_1001746", 0.208, 1,    79.3458,  -88.8,   0.66073, 2,    74.2923, -172.2,   0.61864, 3,    114.805,   51.1,     0.956
"S3X_1001746", 0.208, 1,    79.3458,  -88.8,   0.66073, 2,    74.2923, -172.2,   0.61864, 3,    114.805,   51.1,     0.956
"X_1000502", 0.4157, 2,      236.4, -162.3,   0.98498, 0, 0, 0, 0, 0, 0, 0, 0
"S1X_1000502", 0.4157, 2,    233.483, -162.2,   0.97283, 0, 0, 0, 0, 0, 0, 0, 0
"X_1000824", 0.4157, 1,    47.4339,  -46.5,   0.19764, 2,    236.171, -162.2,   0.98403, 3,    244.919,   84.3,    1.0205
"S1X_1000824", 0.4157, 1,     47.371,  -46.5,   0.19738, 2,    235.843, -162.2,   0.98266, 3,     244.57,   84.3,     1.019
"S2X_1000824", 0.4157, 1,     47.371,  -46.5,   0.19738, 2,    235.843, -162.2,   0.98266, 3,     244.57,   84.3,     1.019
"S3X_1000824", 0.4157, 1,     47.371,  -46.5,   0.19738, 2,    235.843, -162.2,   0.98266, 3,     244.57,   84.3,     1.019
"X_1001745", 0.208, 1,    80.0556,  -88.9,   0.66664, 2,    74.8915, -172.3,   0.62363, 3,    115.717,   51.1,    0.9636
"S1X_1001745", 0.208, 1,    79.3338,  -88.8,   0.66063, 2,    74.2811, -172.2,   0.61855, 3,    114.788,   51.1,   0.95586
"S2X_1001745", 0.208, 1,    79.3338,  -88.8,   0.66063, 2,    74.2811, -172.2,   0.61855, 3,    114.788,   51.1,   0.95586
"S3X_1001745", 0.208, 1,    79.3338,  -88.8,   0.66063, 2,    74.2811, -172.2,   0.61855, 3,    114.788,   51.1,   0.95586
"X_1001329", 0.208, 1,    80.0149,  -88.8,    0.6663, 2,     74.855, -172.3,   0.62333, 3,     115.66,   51.2,   0.96312
"S1X_1001329", 0.208, 1,    79.6524,  -88.8,   0.66328, 2,    74.5488, -172.2,   0.62078, 3,    115.194,   51.2,   0.95924
"S2X_1001329", 0.208, 1,    79.6524,  -88.8,   0.66328, 2,    74.5488, -172.2,   0.62078, 3,    115.194,   51.2,   0.95924
"S3X_1001329", 0.208, 1,    79.6524,  -88.8,   0.66328, 2,    74.5488, -172.2,   0.62078, 3,    115.194,   51.2,   0.95924
"X_1001359", 0.208, 1,    79.7437,  -89.1,   0.66404, 2,    74.6008, -172.5,   0.62121, 3,    115.266,   50.9,   0.95984
"S1X_1001359", 0.208, 1,    78.5533,  -89.0,   0.65413, 2,    73.5924, -172.4,   0.61282, 3,    113.731,   50.9,   0.94706
"S2X_1001359", 0.208, 1,    78.5533,  -89.0,   0.65413, 2,    73.5924, -172.4,   0.61282, 3,    113.731,   50.9,   0.94706
"S3X_1001359", 0.208, 1,    78.5533,  -89.0,   0.65413, 2,    73.5924, -172.4,   0.61282, 3,    113.731,   50.9,   0.94706
"X_1001330", 0.208, 1,    80.0464,  -88.9,   0.66656, 2,    74.8845, -172.3,   0.62358, 3,    115.706,   51.1,    0.9635
"S1X_1001330", 0.208, 1,    79.6837,  -88.9,   0.66354, 2,    74.5782, -172.3,   0.62102, 3,    115.239,   51.1,   0.95962
"S2X_1001330", 0.208, 1,    79.6837,  -88.9,   0.66354, 2,    74.5782, -172.3,   0.62102, 3,    115.239,   51.1,   0.95962
"S3X_1001330", 0.208, 1,    79.6837,  -88.9,   0.66354, 2,    74.5782, -172.3,   0.62102, 3,    115.239,   51.1,   0.95962
"S4X_1001330", 0.208, 1,    79.6837,  -88.9,   0.66354, 2,    74.5782, -172.3,   0.62102, 3,    115.239,   51.1,   0.95962
"S5X_1001330", 0.208, 1,    79.6837,  -88.9,   0.66354, 2,    74.5782, -172.3,   0.62102, 3,    115.239,   51.1,   0.95962
"S6X_1001330", 0.208, 1,    79.6837,  -88.9,   0.66354, 2,    74.5782, -172.3,   0.62102, 3,    115.239,   51.1,   0.95962
"X_1000672", 0.4157, 1,    32.5389,  -33.7,   0.13558, 0, 0, 0, 0, 0, 0, 0, 0
"S1X_1000672", 0.4157, 1,    32.4098,  -33.7,   0.13504, 0, 0, 0, 0, 0, 0, 0, 0
"X_1001708", 0.208, 1,    74.5418,  -90.4,   0.62072, 2,    73.7902, -168.2,   0.61446, 3,    115.412,   50.9,   0.96106
"S1X_1001708", 0.208, 1,    72.8767,  -90.3,   0.60686, 2,    72.3033, -168.1,   0.60208, 3,    113.117,   51.0,   0.94194
"S2X_1001708", 0.208, 1,    72.8767,  -90.3,   0.60686, 2,    72.3033, -168.1,   0.60208, 3,    113.117,   51.0,   0.94194
"S3X_1001708", 0.208, 1,    72.8767,  -90.3,   0.60686, 2,    72.3033, -168.1,   0.60208, 3,    113.117,   51.0,   0.94194
"X_1001345", 0.208, 1,    73.5361,  -91.5,   0.61235, 2,    72.5312, -166.9,   0.60398, 3,    115.598,   51.1,   0.96261
"S1X_1001345", 0.208, 1,    73.2008,  -91.5,   0.60956, 2,    72.2345, -166.9,   0.60151, 3,    115.131,   51.1,   0.95871
"S2X_1001345", 0.208, 1,    73.2008,  -91.5,   0.60956, 2,    72.2345, -166.9,   0.60151, 3,    115.131,   51.1,   0.95871
"S3X_1001345", 0.208, 1,    73.2008,  -91.5,   0.60956, 2,    72.2345, -166.9,   0.60151, 3,    115.131,   51.1,   0.95871
"X_1000933", 0.208, 1,    73.5328,  -91.5,   0.61232, 2,     72.528, -166.9,   0.60395, 3,    115.594,   51.1,   0.96257
"S1X_1000933", 0.208, 1,    73.4655,  -91.5,   0.61176, 2,    72.4685, -166.9,   0.60346, 3,      115.5,   51.1,   0.96179
"S2X_1000933", 0.208, 1,    73.4655,  -91.5,   0.61176, 2,    72.4685, -166.9,   0.60346, 3,      115.5,   51.1,   0.96179
"S3X_1000933", 0.208, 1,    73.4655,  -91.5,   0.61176, 2,    72.4685, -166.9,   0.60346, 3,      115.5,   51.1,   0.96179
"S4X_1000933", 0.208, 1,    73.4655,  -91.5,   0.61176, 2,    72.4685, -166.9,   0.60346, 3,      115.5,   51.1,   0.96179
"S5X_1000933", 0.208, 1,    73.4655,  -91.5,   0.61176, 2,    72.4685, -166.9,   0.60346, 3,      115.5,   51.1,   0.96179
"S6X_1000933", 0.208, 1,    73.4655,  -91.5,   0.61176, 2,    72.4685, -166.9,   0.60346, 3,      115.5,   51.1,   0.96179
"S7X_1000933", 0.208, 1,    73.4655,  -91.5,   0.61176, 2,    72.4685, -166.9,   0.60346, 3,      115.5,   51.1,   0.96179
"S8X_1000933", 0.208, 1,    73.4655,  -91.5,   0.61176, 2,    72.4685, -166.9,   0.60346, 3,      115.5,   51.1,   0.96179
"S9X_1000933", 0.208, 1,    73.4655,  -91.5,   0.61176, 2,    72.4685, -166.9,   0.60346, 3,      115.5,   51.1,   0.96179
"S10X_1000933", 0.208, 1,    73.4655,  -91.5,   0.61176, 2,    72.4685, -166.9,   0.60346, 3,      115.5,   51.1,   0.96179
"S11X_1000933", 0.208, 1,    73.4655,  -91.5,   0.61176, 2,    72.4685, -166.9,   0.60346, 3,      115.5,   51.1,   0.96179
"S12X_1000933", 0.208, 1,    73.4655,  -91.5,   0.61176, 2,    72.4685, -166.9,   0.60346, 3,      115.5,   51.1,   0.96179
"S13X_1000933", 0.208, 1,    73.4655,  -91.5,   0.61176, 2,    72.4685, -166.9,   0.60346, 3,      115.5,   51.1,   0.96179
"S14X_1000933", 0.208, 1,    73.4655,  -91.5,   0.61176, 2,    72.4685, -166.9,   0.60346, 3,      115.5,   51.1,   0.96179
"S15X_1000933", 0.208, 1,    73.4655,  -91.5,   0.61176, 2,    72.4685, -166.9,   0.60346, 3,      115.5,   51.1,   0.96179
"X_1001823", 0.4157, 1,    7.46724,  -35.6,  0.031113, 0, 0, 0, 0, 0, 0, 0, 0
"S1X_1001823", 0.4157, 1,    7.42349,  -35.6,  0.030931, 0, 0, 0, 0, 0, 0, 0, 0
"X_1001822", 0.4157, 1,     7.4457,  -35.4,  0.031023, 2,    244.721, -164.3,    1.0197, 3,     249.19,   87.2,    1.0383
"S1X_1001822", 0.4157, 1,    7.43977,  -35.4,  0.030998, 2,    244.518, -164.3,    1.0188, 3,    248.977,   87.2,    1.0374
"X_1000042", 0.4157, 1,   0.254918, -108.8, 0.0010621, 0, 0, 0, 0, 0, 0, 0, 0
"S1X_1000042", 0.4157, 1,    0.25434, -108.7, 0.0010597, 0, 0, 0, 0, 0, 0, 0, 0
"S2X_1000042", 0.4157, 1,    0.25434, -108.7, 0.0010597, 0, 0, 0, 0, 0, 0, 0, 0
"S3X_1000042", 0.4157, 1,    0.25434, -108.7, 0.0010597, 0, 0, 0, 0, 0, 0, 0, 0
"S4X_1000042", 0.4157, 1,    0.25434, -108.7, 0.0010597, 0, 0, 0, 0, 0, 0, 0, 0
"S5X_1000042", 0.4157, 1,    0.25434, -108.7, 0.0010597, 0, 0, 0, 0, 0, 0, 0, 0
"S6X_1000042", 0.4157, 1,    0.25434, -108.7, 0.0010597, 0, 0, 0, 0, 0, 0, 0, 0
"S7X_1000042", 0.4157, 1,    0.25434, -108.7, 0.0010597, 0, 0, 0, 0, 0, 0, 0, 0
"X_1000077", 0.4157, 1,   0.254809, -108.8, 0.0010617, 0, 0, 0, 0, 0, 0, 0, 0
"S1X_1000077", 0.4157, 1,   0.254471, -108.7, 0.0010603, 0, 0, 0, 0, 0, 0, 0, 0
"S2X_1000077", 0.4157, 1,   0.254471, -108.7, 0.0010603, 0, 0, 0, 0, 0, 0, 0, 0
"S3X_1000077", 0.4157, 1,   0.254471, -108.7, 0.0010603, 0, 0, 0, 0, 0, 0, 0, 0
"S4X_1000077", 0.4157, 1,   0.254471, -108.7, 0.0010603, 0, 0, 0, 0, 0, 0, 0, 0
"S5X_1000077", 0.4157, 1,   0.254471, -108.7, 0.0010603, 0, 0, 0, 0, 0, 0, 0, 0
"S6X_1000077", 0.4157, 1,   0.254471, -108.7, 0.0010603, 0, 0, 0, 0, 0, 0, 0, 0
"X_1000474", 0.4157, 1,   0.254801, -108.8, 0.0010617, 0, 0, 0, 0, 0, 0, 0, 0
"S1X_1000474", 0.4157, 1,   0.254396, -108.7,   0.00106, 0, 0, 0, 0, 0, 0, 0, 0
"S2X_1000474", 0.4157, 1,   0.254396, -108.7,   0.00106, 0, 0, 0, 0, 0, 0, 0, 0
"S3X_1000474", 0.4157, 1,   0.254396, -108.7,   0.00106, 0, 0, 0, 0, 0, 0, 0, 0
"S4X_1000474", 0.4157, 1,   0.254396, -108.7,   0.00106, 0, 0, 0, 0, 0, 0, 0, 0
"S5X_1000474", 0.4157, 1,   0.254396, -108.7,   0.00106, 0, 0, 0, 0, 0, 0, 0, 0
"X_1000043", 0.4157, 1,   0.254812, -108.8, 0.0010617, 0, 0, 0, 0, 0, 0, 0, 0
"S1X_1000043", 0.4157, 1,   0.254475, -108.7, 0.0010603, 0, 0, 0, 0, 0, 0, 0, 0
"S2X_1000043", 0.4157, 1,   0.254475, -108.7, 0.0010603, 0, 0, 0, 0, 0, 0, 0, 0
"S3X_1000043", 0.4157, 1,   0.254475, -108.7, 0.0010603, 0, 0, 0, 0, 0, 0, 0, 0
"S4X_1000043", 0.4157, 1,   0.254475, -108.7, 0.0010603, 0, 0, 0, 0, 0, 0, 0, 0
"S5X_1000043", 0.4157, 1,   0.254475, -108.7, 0.0010603, 0, 0, 0, 0, 0, 0, 0, 0
"S6X_1000043", 0.4157, 1,   0.254475, -108.7, 0.0010603, 0, 0, 0, 0, 0, 0, 0, 0
"X_1001567", 0.208, 1,    72.3455,  -93.1,   0.60243, 2,    71.0713, -165.7,   0.59182, 3,     115.57,   51.0,   0.96237
"S1X_1001567", 0.208, 1,    72.0155,  -93.0,   0.59969, 2,    70.7806, -165.7,    0.5894, 3,    115.102,   51.0,   0.95847
"S2X_1001567", 0.208, 1,    72.0155,  -93.0,   0.59969, 2,    70.7806, -165.7,    0.5894, 3,    115.102,   51.0,   0.95847
"S3X_1001567", 0.208, 1,    72.0155,  -93.0,   0.59969, 2,    70.7806, -165.7,    0.5894, 3,    115.102,   51.0,   0.95847
"X_1000233", 0.4157, 2,    245.245, -165.7,    1.0218, 0, 0, 0, 0, 0, 0, 0, 0
"S1X_1000233", 0.4157, 2,    243.742, -165.7,    1.0156, 0, 0, 0, 0, 0, 0, 0, 0
"X_1000569", 0.208, 1,    71.7327,  -93.6,   0.59733, 2,    70.5903, -166.2,   0.58782, 3,     114.69,   50.5,   0.95504
"S1X_1000569", 0.208, 1,    71.0815,  -93.5,   0.59191, 2,     70.015, -166.1,   0.58303, 3,    113.764,   50.5,   0.94733
"S2X_1000569", 0.208, 1,    71.0815,  -93.5,   0.59191, 2,     70.015, -166.1,   0.58303, 3,    113.764,   50.5,   0.94733
"S3X_1000569", 0.208, 1,    71.0815,  -93.5,   0.59191, 2,     70.015, -166.1,   0.58303, 3,    113.764,   50.5,   0.94733
"X_1000746", 0.208, 1,    71.7105,  -93.6,   0.59715, 2,    70.5636, -166.2,   0.58759, 3,     114.65,   50.5,   0.95471
"S1X_1000746", 0.208, 1,    71.0595,  -93.6,   0.59172, 2,    69.9884, -166.1,   0.58281, 3,    113.725,   50.5,   0.94701
"S2X_1000746", 0.208, 1,    71.0595,  -93.6,   0.59172, 2,    69.9884, -166.1,   0.58281, 3,    113.725,   50.5,   0.94701
"S3X_1000746", 0.208, 1,    71.0595,  -93.6,   0.59172, 2,    69.9884, -166.1,   0.58281, 3,    113.725,   50.5,   0.94701
"X_1000608", 0.4157, 1,   0.459798,  109.1, 0.0019158, 0, 0, 0, 0, 0, 0, 0, 0
"S1X_1000608", 0.4157, 1,   0.459113,  109.2, 0.0019129, 0, 0, 0, 0, 0, 0, 0, 0
"S2X_1000608", 0.4157, 1,   0.459113,  109.2, 0.0019129, 0, 0, 0, 0, 0, 0, 0, 0
"S3X_1000608", 0.4157, 1,   0.459113,  109.2, 0.0019129, 0, 0, 0, 0, 0, 0, 0, 0
"S4X_1000608", 0.4157, 1,   0.459113,  109.2, 0.0019129, 0, 0, 0, 0, 0, 0, 0, 0
"S5X_1000608", 0.4157, 1,   0.459113,  109.2, 0.0019129, 0, 0, 0, 0, 0, 0, 0, 0
"S6X_1000608", 0.4157, 1,   0.459113,  109.2, 0.0019129, 0, 0, 0, 0, 0, 0, 0, 0
"S7X_1000608", 0.4157, 1,   0.459113,  109.2, 0.0019129, 0, 0, 0, 0, 0, 0, 0, 0
"S8X_1000608", 0.4157, 1,   0.459113,  109.2, 0.0019129, 0, 0, 0, 0, 0, 0, 0, 0
"X_1000609", 0.4157, 1,   0.459392,  109.1, 0.0019141, 0, 0, 0, 0, 0, 0, 0, 0
"S1X_1000609", 0.4157, 1,    0.45906,  109.1, 0.0019127, 0, 0, 0, 0, 0, 0, 0, 0
"S2X_1000609", 0.4157, 1,    0.45906,  109.1, 0.0019127, 0, 0, 0, 0, 0, 0, 0, 0
"S3X_1000609", 0.4157, 1,    0.45906,  109.1, 0.0019127, 0, 0, 0, 0, 0, 0, 0, 0
"S4X_1000609", 0.4157, 1,    0.45906,  109.1, 0.0019127, 0, 0, 0, 0, 0, 0, 0, 0
"S5X_1000609", 0.4157, 1,    0.45906,  109.1, 0.0019127, 0, 0, 0, 0, 0, 0, 0, 0
"S6X_1000609", 0.4157, 1,    0.45906,  109.1, 0.0019127, 0, 0, 0, 0, 0, 0, 0, 0
"S7X_1000609", 0.4157, 1,    0.45906,  109.1, 0.0019127, 0, 0, 0, 0, 0, 0, 0, 0
"S8X_1000609", 0.4157, 1,    0.45906,  109.1, 0.0019127, 0, 0, 0, 0, 0, 0, 0, 0
"S9X_1000609", 0.4157, 1,    0.45906,  109.1, 0.0019127, 0, 0, 0, 0, 0, 0, 0, 0
"S10X_1000609", 0.4157, 1,    0.45906,  109.1, 0.0019127, 0, 0, 0, 0, 0, 0, 0, 0
"S11X_1000609", 0.4157, 1,    0.45906,  109.1, 0.0019127, 0, 0, 0, 0, 0, 0, 0, 0
"X_1000610", 0.4157, 1,   0.459516,  109.1, 0.0019146, 0, 0, 0, 0, 0, 0, 0, 0
"S1X_1000610", 0.4157, 1,   0.458852,  109.1, 0.0019118, 0, 0, 0, 0, 0, 0, 0, 0
"S2X_1000610", 0.4157, 1,   0.458852,  109.1, 0.0019118, 0, 0, 0, 0, 0, 0, 0, 0
"S3X_1000610", 0.4157, 1,   0.458852,  109.1, 0.0019118, 0, 0, 0, 0, 0, 0, 0, 0
"S4X_1000610", 0.4157, 1,   0.458852,  109.1, 0.0019118, 0, 0, 0, 0, 0, 0, 0, 0
"S5X_1000610", 0.4157, 1,   0.458852,  109.1, 0.0019118, 0, 0, 0, 0, 0, 0, 0, 0
"S6X_1000610", 0.4157, 1,   0.458852,  109.1, 0.0019118, 0, 0, 0, 0, 0, 0, 0, 0
"S7X_1000610", 0.4157, 1,   0.458852,  109.1, 0.0019118, 0, 0, 0, 0, 0, 0, 0, 0
"S8X_1000610", 0.4157, 1,   0.458852,  109.1, 0.0019118, 0, 0, 0, 0, 0, 0, 0, 0
"S9X_1000610", 0.4157, 1,   0.458852,  109.1, 0.0019118, 0, 0, 0, 0, 0, 0, 0, 0
"S10X_1000610", 0.4157, 1,   0.458852,  109.1, 0.0019118, 0, 0, 0, 0, 0, 0, 0, 0
"S11X_1000610", 0.4157, 1,   0.458852,  109.1, 0.0019118, 0, 0, 0, 0, 0, 0, 0, 0
"X_1000611", 0.4157, 1,   0.459371,  109.1,  0.001914, 0, 0, 0, 0, 0, 0, 0, 0
"S1X_1000611", 0.4157, 1,    0.45864,  109.1,  0.001911, 0, 0, 0, 0, 0, 0, 0, 0
"S2X_1000611", 0.4157, 1,    0.45864,  109.1,  0.001911, 0, 0, 0, 0, 0, 0, 0, 0
"S3X_1000611", 0.4157, 1,    0.45864,  109.1,  0.001911, 0, 0, 0, 0, 0, 0, 0, 0
"S4X_1000611", 0.4157, 1,    0.45864,  109.1,  0.001911, 0, 0, 0, 0, 0, 0, 0, 0
"S5X_1000611", 0.4157, 1,    0.45864,  109.1,  0.001911, 0, 0, 0, 0, 0, 0, 0, 0
"X_1000612", 0.4157, 1,   0.459494,  109.1, 0.0019145, 0, 0, 0, 0, 0, 0, 0, 0
"S1X_1000612", 0.4157, 1,   0.458581,  109.1, 0.0019107, 0, 0, 0, 0, 0, 0, 0, 0
"S2X_1000612", 0.4157, 1,   0.458581,  109.1, 0.0019107, 0, 0, 0, 0, 0, 0, 0, 0
"S3X_1000612", 0.4157, 1,   0.458581,  109.1, 0.0019107, 0, 0, 0, 0, 0, 0, 0, 0
"S4X_1000612", 0.4157, 1,   0.458581,  109.1, 0.0019107, 0, 0, 0, 0, 0, 0, 0, 0
"S5X_1000612", 0.4157, 1,   0.458581,  109.1, 0.0019107, 0, 0, 0, 0, 0, 0, 0, 0
"S6X_1000612", 0.4157, 1,   0.458581,  109.1, 0.0019107, 0, 0, 0, 0, 0, 0, 0, 0
"S7X_1000612", 0.4157, 1,   0.458581,  109.1, 0.0019107, 0, 0, 0, 0, 0, 0, 0, 0
"S8X_1000612", 0.4157, 1,   0.458581,  109.1, 0.0019107, 0, 0, 0, 0, 0, 0, 0, 0
"X_1000598", 0.4157, 3,    249.754,   87.0,    1.0406, 0, 0, 0, 0, 0, 0, 0, 0
"S1X_1000598", 0.4157, 3,    249.398,   87.0,    1.0391, 0, 0, 0, 0, 0, 0, 0, 0
"S2X_1000598", 0.4157, 3,    249.398,   87.0,    1.0391, 0, 0, 0, 0, 0, 0, 0, 0
"S3X_1000598", 0.4157, 3,    249.398,   87.0,    1.0391, 0, 0, 0, 0, 0, 0, 0, 0
"S4X_1000598", 0.4157, 3,    249.398,   87.0,    1.0391, 0, 0, 0, 0, 0, 0, 0, 0
"S5X_1000598", 0.4157, 3,    249.398,   87.0,    1.0391, 0, 0, 0, 0, 0, 0, 0, 0
"S6X_1000598", 0.4157, 3,    249.398,   87.0,    1.0391, 0, 0, 0, 0, 0, 0, 0, 0
"S7X_1000598", 0.4157, 3,    249.398,   87.0,    1.0391, 0, 0, 0, 0, 0, 0, 0, 0
"S8X_1000598", 0.4157, 3,    249.398,   87.0,    1.0391, 0, 0, 0, 0, 0, 0, 0, 0
"S9X_1000598", 0.4157, 3,    249.398,   87.0,    1.0391, 0, 0, 0, 0, 0, 0, 0, 0
"X_1000599", 0.4157, 3,    249.752,   87.0,    1.0406, 0, 0, 0, 0, 0, 0, 0, 0
"S1X_1000599", 0.4157, 3,    249.461,   87.0,    1.0394, 0, 0, 0, 0, 0, 0, 0, 0
"S2X_1000599", 0.4157, 3,    249.461,   87.0,    1.0394, 0, 0, 0, 0, 0, 0, 0, 0
"S3X_1000599", 0.4157, 3,    249.461,   87.0,    1.0394, 0, 0, 0, 0, 0, 0, 0, 0
"S4X_1000599", 0.4157, 3,    249.461,   87.0,    1.0394, 0, 0, 0, 0, 0, 0, 0, 0
"S5X_1000599", 0.4157, 3,    249.461,   87.0,    1.0394, 0, 0, 0, 0, 0, 0, 0, 0
"S6X_1000599", 0.4157, 3,    249.461,   87.0,    1.0394, 0, 0, 0, 0, 0, 0, 0, 0
"S7X_1000599", 0.4157, 3,    249.461,   87.0,    1.0394, 0, 0, 0, 0, 0, 0, 0, 0
"S8X_1000599", 0.4157, 3,    249.461,   87.0,    1.0394, 0, 0, 0, 0, 0, 0, 0, 0
"S9X_1000599", 0.4157, 3,    249.461,   87.0,    1.0394, 0, 0, 0, 0, 0, 0, 0, 0
"S10X_1000599", 0.4157, 3,    249.461,   87.0,    1.0394, 0, 0, 0, 0, 0, 0, 0, 0
"S11X_1000599", 0.4157, 3,    249.461,   87.0,    1.0394, 0, 0, 0, 0, 0, 0, 0, 0
"X_1000600", 0.4157, 3,    249.535,   87.0,    1.0397, 0, 0, 0, 0, 0, 0, 0, 0
"S1X_1000600", 0.4157, 3,    249.298,   87.0,    1.0387, 0, 0, 0, 0, 0, 0, 0, 0
"S2X_1000600", 0.4157, 3,    249.298,   87.0,    1.0387, 0, 0, 0, 0, 0, 0, 0, 0
"S3X_1000600", 0.4157, 3,    249.298,   87.0,    1.0387, 0, 0, 0, 0, 0, 0, 0, 0
"S4X_1000600", 0.4157, 3,    249.298,   87.0,    1.0387, 0, 0, 0, 0, 0, 0, 0, 0
"S5X_1000600", 0.4157, 3,    249.298,   87.0,    1.0387, 0, 0, 0, 0, 0, 0, 0, 0
"S6X_1000600", 0.4157, 3,    249.298,   87.0,    1.0387, 0, 0, 0, 0, 0, 0, 0, 0
"S7X_1000600", 0.4157, 3,    249.298,   87.0,    1.0387, 0, 0, 0, 0, 0, 0, 0, 0
"S8X_1000600", 0.4157, 3,    249.298,   87.0,    1.0387, 0, 0, 0, 0, 0, 0, 0, 0
"S9X_1000600", 0.4157, 3,    249.298,   87.0,    1.0387, 0, 0, 0, 0, 0, 0, 0, 0
"X_1000602", 0.4157, 3,    249.531,   87.0,    1.0397, 0, 0, 0, 0, 0, 0, 0, 0
"S1X_1000602", 0.4157, 3,    249.264,   87.0,    1.0386, 0, 0, 0, 0, 0, 0, 0, 0
"S2X_1000602", 0.4157, 3,    249.264,   87.0,    1.0386, 0, 0, 0, 0, 0, 0, 0, 0
"S3X_1000602", 0.4157, 3,    249.264,   87.0,    1.0386, 0, 0, 0, 0, 0, 0, 0, 0
"S4X_1000602", 0.4157, 3,    249.264,   87.0,    1.0386, 0, 0, 0, 0, 0, 0, 0, 0
"S5X_1000602", 0.4157, 3,    249.264,   87.0,    1.0386, 0, 0, 0, 0, 0, 0, 0, 0
"S6X_1000602", 0.4157, 3,    249.264,   87.0,    1.0386, 0, 0, 0, 0, 0, 0, 0, 0
"S7X_1000602", 0.4157, 3,    249.264,   87.0,    1.0386, 0, 0, 0, 0, 0, 0, 0, 0
"S8X_1000602", 0.4157, 3,    249.264,   87.0,    1.0386, 0, 0, 0, 0, 0, 0, 0, 0
"X_1000601", 0.4157, 3,    249.531,   87.0,    1.0397, 0, 0, 0, 0, 0, 0, 0, 0
"S1X_1000601", 0.4157, 3,    249.265,   87.0,    1.0386, 0, 0, 0, 0, 0, 0, 0, 0
"S2X_1000601", 0.4157, 3,    249.265,   87.0,    1.0386, 0, 0, 0, 0, 0, 0, 0, 0
"S3X_1000601", 0.4157, 3,    249.265,   87.0,    1.0386, 0, 0, 0, 0, 0, 0, 0, 0
"S4X_1000601", 0.4157, 3,    249.265,   87.0,    1.0386, 0, 0, 0, 0, 0, 0, 0, 0
"S5X_1000601", 0.4157, 3,    249.265,   87.0,    1.0386, 0, 0, 0, 0, 0, 0, 0, 0
"S6X_1000601", 0.4157, 3,    249.265,   87.0,    1.0386, 0, 0, 0, 0, 0, 0, 0, 0
"S7X_1000601", 0.4157, 3,    249.265,   87.0,    1.0386, 0, 0, 0, 0, 0, 0, 0, 0
"S8X_1000601", 0.4157, 3,    249.265,   87.0,    1.0386, 0, 0, 0, 0, 0, 0, 0, 0
"X_1000603", 0.4157, 2,    245.334, -165.7,    1.0222, 0, 0, 0, 0, 0, 0, 0, 0
"S1X_1000603", 0.4157, 2,    244.897, -165.7,    1.0204, 0, 0, 0, 0, 0, 0, 0, 0
"S2X_1000603", 0.4157, 2,    244.897, -165.7,    1.0204, 0, 0, 0, 0, 0, 0, 0, 0
"S3X_1000603", 0.4157, 2,    244.897, -165.7,    1.0204, 0, 0, 0, 0, 0, 0, 0, 0
"S4X_1000603", 0.4157, 2,    244.897, -165.7,    1.0204, 0, 0, 0, 0, 0, 0, 0, 0
"S5X_1000603", 0.4157, 2,    244.897, -165.7,    1.0204, 0, 0, 0, 0, 0, 0, 0, 0
"S6X_1000603", 0.4157, 2,    244.897, -165.7,    1.0204, 0, 0, 0, 0, 0, 0, 0, 0
"S7X_1000603", 0.4157, 2,    244.897, -165.7,    1.0204, 0, 0, 0, 0, 0, 0, 0, 0
"X_1000604", 0.4157, 2,    245.318, -165.7,    1.0221, 0, 0, 0, 0, 0, 0, 0, 0
"S1X_1000604", 0.4157, 2,    245.114, -165.7,    1.0213, 0, 0, 0, 0, 0, 0, 0, 0
"S2X_1000604", 0.4157, 2,    245.114, -165.7,    1.0213, 0, 0, 0, 0, 0, 0, 0, 0
"S3X_1000604", 0.4157, 2,    245.114, -165.7,    1.0213, 0, 0, 0, 0, 0, 0, 0, 0
"S4X_1000604", 0.4157, 2,    245.114, -165.7,    1.0213, 0, 0, 0, 0, 0, 0, 0, 0
"S5X_1000604", 0.4157, 2,    245.114, -165.7,    1.0213, 0, 0, 0, 0, 0, 0, 0, 0
"S6X_1000604", 0.4157, 2,    245.114, -165.7,    1.0213, 0, 0, 0, 0, 0, 0, 0, 0
"S7X_1000604", 0.4157, 2,    245.114, -165.7,    1.0213, 0, 0, 0, 0, 0, 0, 0, 0
"S8X_1000604", 0.4157, 2,    245.114, -165.7,    1.0213, 0, 0, 0, 0, 0, 0, 0, 0
"S9X_1000604", 0.4157, 2,    245.114, -165.7,    1.0213, 0, 0, 0, 0, 0, 0, 0, 0
"S10X_1000604", 0.4157, 2,    245.114, -165.7,    1.0213, 0, 0, 0, 0, 0, 0, 0, 0
"S11X_1000604", 0.4157, 2,    245.114, -165.7,    1.0213, 0, 0, 0, 0, 0, 0, 0, 0
"S12X_1000604", 0.4157, 2,    245.114, -165.7,    1.0213, 0, 0, 0, 0, 0, 0, 0, 0
"S13X_1000604", 0.4157, 2,    245.114, -165.7,    1.0213, 0, 0, 0, 0, 0, 0, 0, 0
"S14X_1000604", 0.4157, 2,    245.114, -165.7,    1.0213, 0, 0, 0, 0, 0, 0, 0, 0
"S15X_1000604", 0.4157, 2,    245.114, -165.7,    1.0213, 0, 0, 0, 0, 0, 0, 0, 0
"X_1000605", 0.4157, 2,    245.173, -165.8,    1.0215, 0, 0, 0, 0, 0, 0, 0, 0
"S1X_1000605", 0.4157, 2,    244.802, -165.8,      1.02, 0, 0, 0, 0, 0, 0, 0, 0
"S2X_1000605", 0.4157, 2,    244.802, -165.8,      1.02, 0, 0, 0, 0, 0, 0, 0, 0
"S3X_1000605", 0.4157, 2,    244.802, -165.8,      1.02, 0, 0, 0, 0, 0, 0, 0, 0
"S4X_1000605", 0.4157, 2,    244.802, -165.8,      1.02, 0, 0, 0, 0, 0, 0, 0, 0
"S5X_1000605", 0.4157, 2,    244.802, -165.8,      1.02, 0, 0, 0, 0, 0, 0, 0, 0
"S6X_1000605", 0.4157, 2,    244.802, -165.8,      1.02, 0, 0, 0, 0, 0, 0, 0, 0
"S7X_1000605", 0.4157, 2,    244.802, -165.8,      1.02, 0, 0, 0, 0, 0, 0, 0, 0
"S8X_1000605", 0.4157, 2,    244.802, -165.8,      1.02, 0, 0, 0, 0, 0, 0, 0, 0
"S9X_1000605", 0.4157, 2,    244.802, -165.8,      1.02, 0, 0, 0, 0, 0, 0, 0, 0
"S10X_1000605", 0.4157, 2,    244.802, -165.8,      1.02, 0, 0, 0, 0, 0, 0, 0, 0
"S11X_1000605", 0.4157, 2,    244.802, -165.8,      1.02, 0, 0, 0, 0, 0, 0, 0, 0
"X_1000606", 0.4157, 2,    245.292, -165.7,     1.022, 0, 0, 0, 0, 0, 0, 0, 0
"S1X_1000606", 0.4157, 2,    245.037, -165.7,     1.021, 0, 0, 0, 0, 0, 0, 0, 0
"S2X_1000606", 0.4157, 2,    245.037, -165.7,     1.021, 0, 0, 0, 0, 0, 0, 0, 0
"S3X_1000606", 0.4157, 2,    245.037, -165.7,     1.021, 0, 0, 0, 0, 0, 0, 0, 0
"S4X_1000606", 0.4157, 2,    245.037, -165.7,     1.021, 0, 0, 0, 0, 0, 0, 0, 0
"S5X_1000606", 0.4157, 2,    245.037, -165.7,     1.021, 0, 0, 0, 0, 0, 0, 0, 0
"S6X_1000606", 0.4157, 2,    245.037, -165.7,     1.021, 0, 0, 0, 0, 0, 0, 0, 0
"S7X_1000606", 0.4157, 2,    245.037, -165.7,     1.021, 0, 0, 0, 0, 0, 0, 0, 0
"S8X_1000606", 0.4157, 2,    245.037, -165.7,     1.021, 0, 0, 0, 0, 0, 0, 0, 0
"S9X_1000606", 0.4157, 2,    245.037, -165.7,     1.021, 0, 0, 0, 0, 0, 0, 0, 0
"S10X_1000606", 0.4157, 2,    245.037, -165.7,     1.021, 0, 0, 0, 0, 0, 0, 0, 0
"S11X_1000606", 0.4157, 2,    245.037, -165.7,     1.021, 0, 0, 0, 0, 0, 0, 0, 0
"S12X_1000606", 0.4157, 2,    245.037, -165.7,     1.021, 0, 0, 0, 0, 0, 0, 0, 0
"X_1000607", 0.4157, 2,    245.099, -165.8,    1.0212, 0, 0, 0, 0, 0, 0, 0, 0
"S1X_1000607", 0.4157, 2,    244.844, -165.8,    1.0202, 0, 0, 0, 0, 0, 0, 0, 0
"S2X_1000607", 0.4157, 2,    244.844, -165.8,    1.0202, 0, 0, 0, 0, 0, 0, 0, 0
"S3X_1000607", 0.4157, 2,    244.844, -165.8,    1.0202, 0, 0, 0, 0, 0, 0, 0, 0
"S4X_1000607", 0.4157, 2,    244.844, -165.8,    1.0202, 0, 0, 0, 0, 0, 0, 0, 0
"S5X_1000607", 0.4157, 2,    244.844, -165.8,    1.0202, 0, 0, 0, 0, 0, 0, 0, 0
"S6X_1000607", 0.4157, 2,    244.844, -165.8,    1.0202, 0, 0, 0, 0, 0, 0, 0, 0
"S7X_1000607", 0.4157, 2,    244.844, -165.8,    1.0202, 0, 0, 0, 0, 0, 0, 0, 0
"S8X_1000607", 0.4157, 2,    244.844, -165.8,    1.0202, 0, 0, 0, 0, 0, 0, 0, 0
"X_1001933", 0.208, 1,    71.5688,  -93.7,   0.59597, 2,    70.4427, -166.3,   0.58659, 3,    114.441,   50.3,   0.95297
"S1X_1001933", 0.208, 1,    69.4523,  -93.6,   0.57834, 2,     68.562, -166.2,   0.57093, 3,    111.418,   50.4,   0.92779
"S2X_1001933", 0.208, 1,    69.4523,  -93.6,   0.57834, 2,     68.562, -166.2,   0.57093, 3,    111.418,   50.4,   0.92779
"S3X_1001933", 0.208, 1,    69.4523,  -93.6,   0.57834, 2,     68.562, -166.2,   0.57093, 3,    111.418,   50.4,   0.92779
"X_1000198", 0.4157, 1,   0.313424,  123.6, 0.0013059, 0, 0, 0, 0, 0, 0, 0, 0
"S1X_1000198", 0.4157, 1,   0.312925,  123.6, 0.0013038, 0, 0, 0, 0, 0, 0, 0, 0
"X_1000548", 0.4157, 1,   0.520756,  125.9, 0.0021698, 0, 0, 0, 0, 0, 0, 0, 0
"S1X_1000548", 0.4157, 1,   0.516642,  126.0, 0.0021526, 0, 0, 0, 0, 0, 0, 0, 0
"X_1000069", 0.208, 1,    71.7793,  -93.6,   0.59772, 2,    70.6468, -166.2,   0.58829, 3,    114.777,   50.5,   0.95576
"S1X_1000069", 0.208, 1,    71.4518,  -93.6,   0.59499, 2,    70.3578, -166.2,   0.58588, 3,    114.312,   50.5,   0.95189
"S2X_1000069", 0.208, 1,    71.4518,  -93.6,   0.59499, 2,    70.3578, -166.2,   0.58588, 3,    114.312,   50.5,   0.95189
"S3X_1000069", 0.208, 1,    71.4518,  -93.6,   0.59499, 2,    70.3578, -166.2,   0.58588, 3,    114.312,   50.5,   0.95189
"S4X_1000069", 0.208, 1,    71.4518,  -93.6,   0.59499, 2,    70.3578, -166.2,   0.58588, 3,    114.312,   50.5,   0.95189
"S5X_1000069", 0.208, 1,    71.4518,  -93.6,   0.59499, 2,    70.3578, -166.2,   0.58588, 3,    114.312,   50.5,   0.95189
"S6X_1000069", 0.208, 1,    71.4518,  -93.6,   0.59499, 2,    70.3578, -166.2,   0.58588, 3,    114.312,   50.5,   0.95189
"X_1000531", 0.4157, 1,   0.213746,  121.2, 0.00089059, 0, 0, 0, 0, 0, 0, 0, 0
"S1X_1000531", 0.4157, 1,   0.213514,  121.2, 0.00088963, 0, 0, 0, 0, 0, 0, 0, 0
"S2X_1000531", 0.4157, 1,   0.213514,  121.2, 0.00088963, 0, 0, 0, 0, 0, 0, 0, 0
"S3X_1000531", 0.4157, 1,   0.213514,  121.2, 0.00088963, 0, 0, 0, 0, 0, 0, 0, 0
"S4X_1000531", 0.4157, 1,   0.213514,  121.2, 0.00088963, 0, 0, 0, 0, 0, 0, 0, 0
"S5X_1000531", 0.4157, 1,   0.213514,  121.2, 0.00088963, 0, 0, 0, 0, 0, 0, 0, 0
"S6X_1000531", 0.4157, 1,   0.213514,  121.2, 0.00088963, 0, 0, 0, 0, 0, 0, 0, 0
"S7X_1000531", 0.4157, 1,   0.213514,  121.2, 0.00088963, 0, 0, 0, 0, 0, 0, 0, 0
"S8X_1000531", 0.4157, 1,   0.213514,  121.2, 0.00088963, 0, 0, 0, 0, 0, 0, 0, 0
"S9X_1000531", 0.4157, 1,   0.213514,  121.2, 0.00088963, 0, 0, 0, 0, 0, 0, 0, 0
"S10X_1000531", 0.4157, 1,   0.213514,  121.2, 0.00088963, 0, 0, 0, 0, 0, 0, 0, 0
"S11X_1000531", 0.4157, 1,   0.213514,  121.2, 0.00088963, 0, 0, 0, 0, 0, 0, 0, 0
"X_1000533", 0.4157, 1,   0.213742,  121.2, 0.00089057, 0, 0, 0, 0, 0, 0, 0, 0
"S1X_1000533", 0.4157, 1,    0.21351,  121.2, 0.00088961, 0, 0, 0, 0, 0, 0, 0, 0
"S2X_1000533", 0.4157, 1,    0.21351,  121.2, 0.00088961, 0, 0, 0, 0, 0, 0, 0, 0
"S3X_1000533", 0.4157, 1,    0.21351,  121.2, 0.00088961, 0, 0, 0, 0, 0, 0, 0, 0
"S4X_1000533", 0.4157, 1,    0.21351,  121.2, 0.00088961, 0, 0, 0, 0, 0, 0, 0, 0
"S5X_1000533", 0.4157, 1,    0.21351,  121.2, 0.00088961, 0, 0, 0, 0, 0, 0, 0, 0
"S6X_1000533", 0.4157, 1,    0.21351,  121.2, 0.00088961, 0, 0, 0, 0, 0, 0, 0, 0
"S7X_1000533", 0.4157, 1,    0.21351,  121.2, 0.00088961, 0, 0, 0, 0, 0, 0, 0, 0
"S8X_1000533", 0.4157, 1,    0.21351,  121.2, 0.00088961, 0, 0, 0, 0, 0, 0, 0, 0
"S9X_1000533", 0.4157, 1,    0.21351,  121.2, 0.00088961, 0, 0, 0, 0, 0, 0, 0, 0
"S10X_1000533", 0.4157, 1,    0.21351,  121.2, 0.00088961, 0, 0, 0, 0, 0, 0, 0, 0
"S11X_1000533", 0.4157, 1,    0.21351,  121.2, 0.00088961, 0, 0, 0, 0, 0, 0, 0, 0
"X_1000532", 0.4157, 1,   0.213638,  121.1, 0.00089014, 0, 0, 0, 0, 0, 0, 0, 0
"S1X_1000532", 0.4157, 1,   0.213329,  121.1, 0.00088885, 0, 0, 0, 0, 0, 0, 0, 0
"S2X_1000532", 0.4157, 1,   0.213329,  121.1, 0.00088885, 0, 0, 0, 0, 0, 0, 0, 0
"S3X_1000532", 0.4157, 1,   0.213329,  121.1, 0.00088885, 0, 0, 0, 0, 0, 0, 0, 0
"S4X_1000532", 0.4157, 1,   0.213329,  121.1, 0.00088885, 0, 0, 0, 0, 0, 0, 0, 0
"S5X_1000532", 0.4157, 1,   0.213329,  121.1, 0.00088885, 0, 0, 0, 0, 0, 0, 0, 0
"S6X_1000532", 0.4157, 1,   0.213329,  121.1, 0.00088885, 0, 0, 0, 0, 0, 0, 0, 0
"S7X_1000532", 0.4157, 1,   0.213329,  121.1, 0.00088885, 0, 0, 0, 0, 0, 0, 0, 0
"S8X_1000532", 0.4157, 1,   0.213329,  121.1, 0.00088885, 0, 0, 0, 0, 0, 0, 0, 0
"S9X_1000532", 0.4157, 1,   0.213329,  121.1, 0.00088885, 0, 0, 0, 0, 0, 0, 0, 0
"S10X_1000532", 0.4157, 1,   0.213329,  121.1, 0.00088885, 0, 0, 0, 0, 0, 0, 0, 0
"S11X_1000532", 0.4157, 1,   0.213329,  121.1, 0.00088885, 0, 0, 0, 0, 0, 0, 0, 0
"X_1000582", 0.4157, 1,    0.21358,  121.1, 0.0008899, 0, 0, 0, 0, 0, 0, 0, 0
"S1X_1000582", 0.4157, 1,   0.213337,  121.1, 0.00088889, 0, 0, 0, 0, 0, 0, 0, 0
"S2X_1000582", 0.4157, 1,   0.213337,  121.1, 0.00088889, 0, 0, 0, 0, 0, 0, 0, 0
"S3X_1000582", 0.4157, 1,   0.213337,  121.1, 0.00088889, 0, 0, 0, 0, 0, 0, 0, 0
"S4X_1000582", 0.4157, 1,   0.213337,  121.1, 0.00088889, 0, 0, 0, 0, 0, 0, 0, 0
"S5X_1000582", 0.4157, 1,   0.213337,  121.1, 0.00088889, 0, 0, 0, 0, 0, 0, 0, 0
"S6X_1000582", 0.4157, 1,   0.213337,  121.1, 0.00088889, 0, 0, 0, 0, 0, 0, 0, 0
"S7X_1000582", 0.4157, 1,   0.213337,  121.1, 0.00088889, 0, 0, 0, 0, 0, 0, 0, 0
"X_1000581", 0.4157, 1,   0.286802,  122.8,  0.001195, 0, 0, 0, 0, 0, 0, 0, 0
"S1X_1000581", 0.4157, 1,   0.286517,  122.8, 0.0011938, 0, 0, 0, 0, 0, 0, 0, 0
"S2X_1000581", 0.4157, 1,   0.286517,  122.8, 0.0011938, 0, 0, 0, 0, 0, 0, 0, 0
"S3X_1000581", 0.4157, 1,   0.286517,  122.8, 0.0011938, 0, 0, 0, 0, 0, 0, 0, 0
"S4X_1000581", 0.4157, 1,   0.286517,  122.8, 0.0011938, 0, 0, 0, 0, 0, 0, 0, 0
"S5X_1000581", 0.4157, 1,   0.286517,  122.8, 0.0011938, 0, 0, 0, 0, 0, 0, 0, 0
"S6X_1000581", 0.4157, 1,   0.286517,  122.8, 0.0011938, 0, 0, 0, 0, 0, 0, 0, 0
"S7X_1000581", 0.4157, 1,   0.286517,  122.8, 0.0011938, 0, 0, 0, 0, 0, 0, 0, 0
"S8X_1000581", 0.4157, 1,   0.286517,  122.8, 0.0011938, 0, 0, 0, 0, 0, 0, 0, 0
"X_1000537", 0.4157, 1,   0.287025,  122.8, 0.0011959, 0, 0, 0, 0, 0, 0, 0, 0
"S1X_1000537", 0.4157, 1,   0.286761,  122.8, 0.0011948, 0, 0, 0, 0, 0, 0, 0, 0
"S2X_1000537", 0.4157, 1,   0.286761,  122.8, 0.0011948, 0, 0, 0, 0, 0, 0, 0, 0
"S3X_1000537", 0.4157, 1,   0.286761,  122.8, 0.0011948, 0, 0, 0, 0, 0, 0, 0, 0
"S4X_1000537", 0.4157, 1,   0.286761,  122.8, 0.0011948, 0, 0, 0, 0, 0, 0, 0, 0
"S5X_1000537", 0.4157, 1,   0.286761,  122.8, 0.0011948, 0, 0, 0, 0, 0, 0, 0, 0
"S6X_1000537", 0.4157, 1,   0.286761,  122.8, 0.0011948, 0, 0, 0, 0, 0, 0, 0, 0
"S7X_1000537", 0.4157, 1,   0.286761,  122.8, 0.0011948, 0, 0, 0, 0, 0, 0, 0, 0
"S8X_1000537", 0.4157, 1,   0.286761,  122.8, 0.0011948, 0, 0, 0, 0, 0, 0, 0, 0
"S9X_1000537", 0.4157, 1,   0.286761,  122.8, 0.0011948, 0, 0, 0, 0, 0, 0, 0, 0
"S10X_1000537", 0.4157, 1,   0.286761,  122.8, 0.0011948, 0, 0, 0, 0, 0, 0, 0, 0
"S11X_1000537", 0.4157, 1,   0.286761,  122.8, 0.0011948, 0, 0, 0, 0, 0, 0, 0, 0
"S12X_1000537", 0.4157, 1,   0.286761,  122.8, 0.0011948, 0, 0, 0, 0, 0, 0, 0, 0
"S13X_1000537", 0.4157, 1,   0.286761,  122.8, 0.0011948, 0, 0, 0, 0, 0, 0, 0, 0
"X_1000536", 0.4157, 1,   0.286895,  122.7, 0.0011954, 0, 0, 0, 0, 0, 0, 0, 0
"S1X_1000536", 0.4157, 1,    0.28648,  122.8, 0.0011936, 0, 0, 0, 0, 0, 0, 0, 0
"S2X_1000536", 0.4157, 1,    0.28648,  122.8, 0.0011936, 0, 0, 0, 0, 0, 0, 0, 0
"S3X_1000536", 0.4157, 1,    0.28648,  122.8, 0.0011936, 0, 0, 0, 0, 0, 0, 0, 0
"S4X_1000536", 0.4157, 1,    0.28648,  122.8, 0.0011936, 0, 0, 0, 0, 0, 0, 0, 0
"S5X_1000536", 0.4157, 1,    0.28648,  122.8, 0.0011936, 0, 0, 0, 0, 0, 0, 0, 0
"S6X_1000536", 0.4157, 1,    0.28648,  122.8, 0.0011936, 0, 0, 0, 0, 0, 0, 0, 0
"S7X_1000536", 0.4157, 1,    0.28648,  122.8, 0.0011936, 0, 0, 0, 0, 0, 0, 0, 0
"S8X_1000536", 0.4157, 1,    0.28648,  122.8, 0.0011936, 0, 0, 0, 0, 0, 0, 0, 0
"S9X_1000536", 0.4157, 1,    0.28648,  122.8, 0.0011936, 0, 0, 0, 0, 0, 0, 0, 0
"S10X_1000536", 0.4157, 1,    0.28648,  122.8, 0.0011936, 0, 0, 0, 0, 0, 0, 0, 0
"S11X_1000536", 0.4157, 1,    0.28648,  122.8, 0.0011936, 0, 0, 0, 0, 0, 0, 0, 0
"X_1000534", 0.4157, 3,    249.627,   87.2,    1.0401, 0, 0, 0, 0, 0, 0, 0, 0
"S1X_1000534", 0.4157, 3,     249.53,   87.2,    1.0397, 0, 0, 0, 0, 0, 0, 0, 0
"S2X_1000534", 0.4157, 3,     249.53,   87.2,    1.0397, 0, 0, 0, 0, 0, 0, 0, 0
"S3X_1000534", 0.4157, 3,     249.53,   87.2,    1.0397, 0, 0, 0, 0, 0, 0, 0, 0
"S4X_1000534", 0.4157, 3,     249.53,   87.2,    1.0397, 0, 0, 0, 0, 0, 0, 0, 0
"S5X_1000534", 0.4157, 3,     249.53,   87.2,    1.0397, 0, 0, 0, 0, 0, 0, 0, 0
"S6X_1000534", 0.4157, 3,     249.53,   87.2,    1.0397, 0, 0, 0, 0, 0, 0, 0, 0
"S7X_1000534", 0.4157, 3,     249.53,   87.2,    1.0397, 0, 0, 0, 0, 0, 0, 0, 0
"S8X_1000534", 0.4157, 3,     249.53,   87.2,    1.0397, 0, 0, 0, 0, 0, 0, 0, 0
"S9X_1000534", 0.4157, 3,     249.53,   87.2,    1.0397, 0, 0, 0, 0, 0, 0, 0, 0
"S10X_1000534", 0.4157, 3,     249.53,   87.2,    1.0397, 0, 0, 0, 0, 0, 0, 0, 0
"S11X_1000534", 0.4157, 3,     249.53,   87.2,    1.0397, 0, 0, 0, 0, 0, 0, 0, 0
"X_1000535", 0.4157, 3,    249.762,   87.1,    1.0407, 0, 0, 0, 0, 0, 0, 0, 0
"S1X_1000535", 0.4157, 3,    249.374,   87.1,     1.039, 0, 0, 0, 0, 0, 0, 0, 0
"S2X_1000535", 0.4157, 3,    249.374,   87.1,     1.039, 0, 0, 0, 0, 0, 0, 0, 0
"S3X_1000535", 0.4157, 3,    249.374,   87.1,     1.039, 0, 0, 0, 0, 0, 0, 0, 0
"S4X_1000535", 0.4157, 3,    249.374,   87.1,     1.039, 0, 0, 0, 0, 0, 0, 0, 0
"S5X_1000535", 0.4157, 3,    249.374,   87.1,     1.039, 0, 0, 0, 0, 0, 0, 0, 0
"S6X_1000535", 0.4157, 3,    249.374,   87.1,     1.039, 0, 0, 0, 0, 0, 0, 0, 0
"S7X_1000535", 0.4157, 3,    249.374,   87.1,     1.039, 0, 0, 0, 0, 0, 0, 0, 0
"S8X_1000535", 0.4157, 3,    249.374,   87.1,     1.039, 0, 0, 0, 0, 0, 0, 0, 0
"S9X_1000535", 0.4157, 3,    249.374,   87.1,     1.039, 0, 0, 0, 0, 0, 0, 0, 0
"S10X_1000535", 0.4157, 3,    249.374,   87.1,     1.039, 0, 0, 0, 0, 0, 0, 0, 0
"S11X_1000535", 0.4157, 3,    249.374,   87.1,     1.039, 0, 0, 0, 0, 0, 0, 0, 0
"X_1000586", 0.4157, 3,    249.615,   87.1,      1.04, 0, 0, 0, 0, 0, 0, 0, 0
"S1X_1000586", 0.4157, 3,    249.082,   87.1,    1.0378, 0, 0, 0, 0, 0, 0, 0, 0
"S2X_1000586", 0.4157, 3,    249.082,   87.1,    1.0378, 0, 0, 0, 0, 0, 0, 0, 0
"S3X_1000586", 0.4157, 3,    249.082,   87.1,    1.0378, 0, 0, 0, 0, 0, 0, 0, 0
"S4X_1000586", 0.4157, 3,    249.082,   87.1,    1.0378, 0, 0, 0, 0, 0, 0, 0, 0
"X_1000589", 0.4157, 3,    249.679,   87.1,    1.0403, 0, 0, 0, 0, 0, 0, 0, 0
"S1X_1000589", 0.4157, 3,    249.253,   87.1,    1.0385, 0, 0, 0, 0, 0, 0, 0, 0
"S2X_1000589", 0.4157, 3,    249.253,   87.1,    1.0385, 0, 0, 0, 0, 0, 0, 0, 0
"S3X_1000589", 0.4157, 3,    249.253,   87.1,    1.0385, 0, 0, 0, 0, 0, 0, 0, 0
"S4X_1000589", 0.4157, 3,    249.253,   87.1,    1.0385, 0, 0, 0, 0, 0, 0, 0, 0
"S5X_1000589", 0.4157, 3,    249.253,   87.1,    1.0385, 0, 0, 0, 0, 0, 0, 0, 0
"S6X_1000589", 0.4157, 3,    249.253,   87.1,    1.0385, 0, 0, 0, 0, 0, 0, 0, 0
"S7X_1000589", 0.4157, 3,    249.253,   87.1,    1.0385, 0, 0, 0, 0, 0, 0, 0, 0
"S8X_1000589", 0.4157, 3,    249.253,   87.1,    1.0385, 0, 0, 0, 0, 0, 0, 0, 0
"S9X_1000589", 0.4157, 3,    249.253,   87.1,    1.0385, 0, 0, 0, 0, 0, 0, 0, 0
"S10X_1000589", 0.4157, 3,    249.253,   87.1,    1.0385, 0, 0, 0, 0, 0, 0, 0, 0
"X_1000587", 0.4157, 3,    249.807,   87.1,    1.0408, 0, 0, 0, 0, 0, 0, 0, 0
"S1X_1000587", 0.4157, 3,    249.516,   87.2,    1.0396, 0, 0, 0, 0, 0, 0, 0, 0
"S2X_1000587", 0.4157, 3,    249.516,   87.2,    1.0396, 0, 0, 0, 0, 0, 0, 0, 0
"S3X_1000587", 0.4157, 3,    249.516,   87.2,    1.0396, 0, 0, 0, 0, 0, 0, 0, 0
"S4X_1000587", 0.4157, 3,    249.516,   87.2,    1.0396, 0, 0, 0, 0, 0, 0, 0, 0
"S5X_1000587", 0.4157, 3,    249.516,   87.2,    1.0396, 0, 0, 0, 0, 0, 0, 0, 0
"S6X_1000587", 0.4157, 3,    249.516,   87.2,    1.0396, 0, 0, 0, 0, 0, 0, 0, 0
"S7X_1000587", 0.4157, 3,    249.516,   87.2,    1.0396, 0, 0, 0, 0, 0, 0, 0, 0
"S8X_1000587", 0.4157, 3,    249.516,   87.2,    1.0396, 0, 0, 0, 0, 0, 0, 0, 0
"S9X_1000587", 0.4157, 3,    249.516,   87.2,    1.0396, 0, 0, 0, 0, 0, 0, 0, 0
"S10X_1000587", 0.4157, 3,    249.516,   87.2,    1.0396, 0, 0, 0, 0, 0, 0, 0, 0
"S11X_1000587", 0.4157, 3,    249.516,   87.2,    1.0396, 0, 0, 0, 0, 0, 0, 0, 0
"X_1000588", 0.4157, 3,    249.805,   87.1,    1.0408, 0, 0, 0, 0, 0, 0, 0, 0
"S1X_1000588", 0.4157, 3,    249.485,   87.2,    1.0395, 0, 0, 0, 0, 0, 0, 0, 0
"S2X_1000588", 0.4157, 3,    249.485,   87.2,    1.0395, 0, 0, 0, 0, 0, 0, 0, 0
"S3X_1000588", 0.4157, 3,    249.485,   87.2,    1.0395, 0, 0, 0, 0, 0, 0, 0, 0
"S4X_1000588", 0.4157, 3,    249.485,   87.2,    1.0395, 0, 0, 0, 0, 0, 0, 0, 0
"S5X_1000588", 0.4157, 3,    249.485,   87.2,    1.0395, 0, 0, 0, 0, 0, 0, 0, 0
"S6X_1000588", 0.4157, 3,    249.485,   87.2,    1.0395, 0, 0, 0, 0, 0, 0, 0, 0
"S7X_1000588", 0.4157, 3,    249.485,   87.2,    1.0395, 0, 0, 0, 0, 0, 0, 0, 0
"S8X_1000588", 0.4157, 3,    249.485,   87.2,    1.0395, 0, 0, 0, 0, 0, 0, 0, 0
"S9X_1000588", 0.4157, 3,    249.485,   87.2,    1.0395, 0, 0, 0, 0, 0, 0, 0, 0
"S10X_1000588", 0.4157, 3,    249.485,   87.2,    1.0395, 0, 0, 0, 0, 0, 0, 0, 0
"X_1000585", 0.4157, 3,    249.618,   87.1,    1.0401, 0, 0, 0, 0, 0, 0, 0, 0
"S1X_1000585", 0.4157, 3,    249.262,   87.1,    1.0386, 0, 0, 0, 0, 0, 0, 0, 0
"S2X_1000585", 0.4157, 3,    249.262,   87.1,    1.0386, 0, 0, 0, 0, 0, 0, 0, 0
"S3X_1000585", 0.4157, 3,    249.262,   87.1,    1.0386, 0, 0, 0, 0, 0, 0, 0, 0
"S4X_1000585", 0.4157, 3,    249.262,   87.1,    1.0386, 0, 0, 0, 0, 0, 0, 0, 0
"S5X_1000585", 0.4157, 3,    249.262,   87.1,    1.0386, 0, 0, 0, 0, 0, 0, 0, 0
"S6X_1000585", 0.4157, 3,    249.262,   87.1,    1.0386, 0, 0, 0, 0, 0, 0, 0, 0
"X_1000584", 0.4157, 3,    249.708,   87.1,    1.0404, 0, 0, 0, 0, 0, 0, 0, 0
"S1X_1000584", 0.4157, 3,     249.38,   87.1,    1.0391, 0, 0, 0, 0, 0, 0, 0, 0
"S2X_1000584", 0.4157, 3,     249.38,   87.1,    1.0391, 0, 0, 0, 0, 0, 0, 0, 0
"S3X_1000584", 0.4157, 3,     249.38,   87.1,    1.0391, 0, 0, 0, 0, 0, 0, 0, 0
"S4X_1000584", 0.4157, 3,     249.38,   87.1,    1.0391, 0, 0, 0, 0, 0, 0, 0, 0
"S5X_1000584", 0.4157, 3,     249.38,   87.1,    1.0391, 0, 0, 0, 0, 0, 0, 0, 0
"S6X_1000584", 0.4157, 3,     249.38,   87.1,    1.0391, 0, 0, 0, 0, 0, 0, 0, 0
"S7X_1000584", 0.4157, 3,     249.38,   87.1,    1.0391, 0, 0, 0, 0, 0, 0, 0, 0
...